    7
scf done: -1589.918309
 U    -0.000000    -0.405760     0.000000
 O    -1.725194    -0.227233     0.000000
 O     1.725194    -0.227233    -0.000000
Cl     0.000000    -1.829666     2.076599
Cl    -0.000000    -1.829666    -2.076599
Ar    -0.000000     2.155992    -1.965226
Ar     0.000000     2.155992     1.965226
