%mem=48000Mb
%NProcShared=16
%chk=uo2_cl2_phenaxial.pbe0-d3.optg.chk
#p PBE1PBE/GEN GFInput GFPrint 5D 7F IOP(6/7=3, 4/69=2, 6/10=1) Pseudo=Read
   EmpiricalDispersion=GD3BJ
   Symm=(Loose) Int=(UltraFine)
   Guess=(Harris)
   Scf=(NoVarAcc,MaxCycle=100,conver=8)
   Opt=Tight

[UO2Cl2(phen)_axial] - PBE0+D3BJ - GS

 0 1
 U     0.000000    -0.000000     0.134507
 O    -1.735028     0.000000     0.389354
 O     1.735028    -0.000000     0.389354
Cl    -0.000000     2.519009    -0.827649
Cl     0.000000    -2.519009    -0.827649
 N    -1.356916     0.000000    -2.307887
 C    -2.674210     0.000000    -2.307225
 H    -3.150387     0.000000    -1.334426
 C    -3.445567     0.000000    -3.473741
 H    -4.525377     0.000000    -3.401329
 C    -2.808304     0.000000    -4.686300
 H    -3.367067     0.000000    -5.615380
 C    -1.405553     0.000000    -4.722104
 C    -0.676217     0.000000    -5.947626
 H    -1.231590     0.000000    -6.878503
 C     0.676217    -0.000000    -5.947626
 H     1.231590    -0.000000    -6.878503
 C     1.405553    -0.000000    -4.722104
 C     2.808304    -0.000000    -4.686300
 H     3.367067    -0.000000    -5.615380
 C     3.445567    -0.000000    -3.473741
 H     4.525377    -0.000000    -3.401329
 C     2.674210    -0.000000    -2.307225
 H     3.150387    -0.000000    -1.334426
 N     1.356916    -0.000000    -2.307887
 C     0.717623    -0.000000    -3.490973
 C    -0.717623     0.000000    -3.490973

!input file for basis set of U
@/home/vallet/basis/U-ECP60MWB_SEG/N
****
Cl 0
Def2TZVP
****
O  0
Def2TZVP
****
N  0
Def2TZVP
****
C  0
Def2TZVP
****
H  0
Def2TZVP
****

!input file for ECP for U
@/home/vallet/basis/U-ECP60MWB/N

