%mem=24000Mb
%NProcShared=8
%chk=uo2_2cl_phenaxial.linear.pbe0-d3.optg.chk
#p PBE1PBE/GEN GFInput GFPrint 5D 7F IOP(6/7=3, 4/69=2, 6/10=1) Pseudo=Read
   EmpiricalDispersion=GD3BJ
   Symm=(Loose) Int=(UltraFine)
   Guess=(CheckPoint) Geom=(ModRedundant)
   Scf=(NoVarAcc,MaxCycle=100,conver=8)
   Opt

[UO2Cl2(phen)_axial] - PBE0+D3BJ - GS

 0 1
U       0.00000000       0.00000000      -3.44964587
O       0.00000000       1.74073578      -3.44965663
O       0.00000000      -1.74073578      -3.44965663
Cl      -2.52856001       0.00000000      -2.53525582
Cl       2.52856001       0.00000000      -2.53525582
N       0.00000000       1.35662000      -1.00610587
C       0.00000000       2.67396000      -1.00664587
H       0.00000000       3.15039000      -1.97935587
C       0.00000000       3.44521000       0.15974413
H       0.00000000       4.52507000       0.08740413
C       0.00000000       2.80793000       1.37207413
H       0.00000000       3.36669000       2.30111413
C       0.00000000       1.40530000       1.40772413
C       0.00000000       0.67611000       2.63312413
H       0.00000000       1.23143000       3.56399413
C       0.00000000      -0.67611000       2.63312413
H       0.00000000      -1.23143000       3.56399413
C       0.00000000      -1.40530000       1.40772413
C       0.00000000      -2.80793000       1.37207413
H       0.00000000      -3.36669000       2.30111413
C       0.00000000      -3.44521000       0.15974413
H       0.00000000      -4.52507000       0.08740413
C       0.00000000      -2.67396000      -1.00664587
H       0.00000000      -3.15039000      -1.97935587
N       0.00000000      -1.35662000      -1.00610587
C       0.00000000      -0.71745000       0.17666413
C       0.00000000       0.71745000       0.17666413

L 2 1 3 F

!input file for basis set of U
@/home/vallet/basis/U-ECP60MWB_SEG/N
****
Cl 0
Def2TZVP
****
O  0
Def2TZVP
****
N  0
Def2TZVP
****
C  0
Def2TZVP
****
H  0
Def2TZVP
****

!input file for ECP for U
@/home/vallet/basis/U-ECP60MWB/N

