   49
scf done: -2690.098324
 U     0.000000     0.000000    -0.034378
 O     1.743220     0.000000    -0.034374
 O    -1.743220    -0.000000    -0.034374
 N     0.000000    -1.366932     2.257769
 C     0.000000    -2.688361     2.263966
 H     0.000000    -3.160654     1.288027
 C     0.000000    -3.448214     3.438151
 H     0.000000    -4.528201     3.368132
 C     0.000000    -2.805522     4.644745
 H     0.000000    -3.357443     5.578564
 C     0.000000    -1.403026     4.674361
 C     0.000000    -0.675534     5.899031
 H     0.000000    -1.232119     6.829404
 C     0.000000     0.675534     5.899031
 H     0.000000     1.232119     6.829404
 C     0.000000     1.403026     4.674361
 C     0.000000     2.805522     4.644745
 H     0.000000     3.357443     5.578564
 C     0.000000     3.448214     3.438151
 H     0.000000     4.528201     3.368132
 C     0.000000     2.688361     2.263966
 H    -0.000000     3.160654     1.288027
 N     0.000000     1.366932     2.257769
 C     0.000000     0.717861     3.441809
 C     0.000000    -0.717861     3.441809
Cl     0.000000    -2.490476    -0.943473
Cl    -0.000000     2.490476    -0.943473
 N     1.354607     0.000000    -2.715248
 C     2.668299     0.000000    -2.711680
 H     3.138242     0.000000    -1.735229
 C     3.443285     0.000000    -3.877606
 H     4.523698     0.000000    -3.804682
 C     2.807922     0.000000    -5.090642
 H     3.367465     0.000000    -6.020208
 C     1.406262     0.000000    -5.128512
 C     0.675968     0.000000    -6.353083
 H     1.230515     0.000000    -7.285296
 C    -0.675968    -0.000000    -6.353083
 H    -1.230515    -0.000000    -7.285296
 C    -1.406262    -0.000000    -5.128512
 C    -2.807922    -0.000000    -5.090642
 H    -3.367465    -0.000000    -6.020208
 C    -3.443285    -0.000000    -3.877606
 H    -4.523698    -0.000000    -3.804682
 C    -2.668299    -0.000000    -2.711680
 H    -3.138242    -0.000000    -1.735229
 N    -1.354607    -0.000000    -2.715248
 C    -0.719605    -0.000000    -3.895313
 C     0.719605     0.000000    -3.895313
