%mem=36000Mb
%NProc=12
%oldchk=tddft-uo2_2cl_2phen.pbe0-d3.freq.chk
%chk=gs-uo2_2cl_2phen.pbe0-d3.optg.chk
#p PBE1PBE/GEN GFInput GFPrint 5D 7F Pseudo=Read
   IOP(6/7=3, 4/69=2, 6/10=1)
   EmpiricalDispersion=GD3BJ
   Int=(UltraFine)
   Guess=(CheckPoint)
   Scf=(NoVarAcc,MaxCycle=100,conver=8)
   Symmetry=(Follow, Loose, SaveOrientation, PrintOrientation)
   Opt=Tight

[UO2cl2(phen)2] - PBE0+D3BJ - GS

0 1
 U    -0.000000    -0.000000     0.117214
 O    -0.000000     1.733935     0.381399
 O    -0.000000    -1.733935     0.381399
 N     1.369950    -0.000000     2.420459
 C     2.689957    -0.000000     2.427872
 H     3.164126    -0.000000     1.452866
 C     3.449746    -0.000000     3.602363
 H     4.529907    -0.000000     3.533873
 C     2.805392    -0.000000     4.808063
 H     3.355809    -0.000000     5.742818
 C     1.402978    -0.000000     4.835660
 C     0.675468    -0.000000     6.060363
 H     1.232173    -0.000000     6.990761
 C    -0.675468     0.000000     6.060363
 H    -1.232173     0.000000     6.990761
 C    -1.402978     0.000000     4.835660
 C    -2.805392     0.000000     4.808063
 H    -3.355809     0.000000     5.742818
 C    -3.449746     0.000000     3.602363
 H    -4.529907     0.000000     3.533873
 C    -2.689957     0.000000     2.427872
 H    -3.164126     0.000000     1.452866
 N    -1.369950     0.000000     2.420459
 C    -0.718489     0.000000     3.601999
 C     0.718489    -0.000000     3.601999
Cl     2.497853    -0.000000    -0.797850
Cl    -2.497853     0.000000    -0.797850
 N    -0.000000     1.352207    -2.321540
 C    -0.000000     2.666937    -2.312203
 H    -0.000000     3.131546    -1.333522
 C    -0.000000     3.441200    -3.477571
 H    -0.000000     4.521239    -3.402453
 C    -0.000000     2.808361    -4.691998
 H    -0.000000     3.370517    -5.619820
 C    -0.000000     1.406667    -4.733708
 C    -0.000000     0.676077    -5.958124
 H    -0.000000     1.230366    -6.890288
 C    -0.000000    -0.676077    -5.958124
 H    -0.000000    -1.230366    -6.890288
 C    -0.000000    -1.406667    -4.733708
 C    -0.000000    -2.808361    -4.691998
 H    -0.000000    -3.370517    -5.619820
 C    -0.000000    -3.441200    -3.477571
 H    -0.000000    -4.521239    -3.402453
 C    -0.000000    -2.666937    -2.312203
 H    -0.000000    -3.131546    -1.333522
 N    -0.000000    -1.352207    -2.321540
 C     0.000000    -0.717784    -3.503763
 C     0.000000     0.717784    -3.503763

!input file for basis set of U
@/home/vallet/basis/U-ECP60MWB_SEG/N
****
Cl 0
Def2TZVP
****
O  0
Def2TZVP
****
N  0
Def2TZVP
****
C  0
Def2TZVP
****
H  0
Def2TZVP
****

!input file for ECP for U
@/home/vallet/basis/U-ECP60MWB/N

